Version 4
SHEET 1 2068 888
WIRE 224 -208 192 -208
WIRE 1008 -208 416 -208
WIRE 1264 -208 1200 -208
WIRE 1552 -32 1360 -32
WIRE 112 -16 -80 -16
WIRE 1360 48 1360 -32
WIRE 1408 48 1360 48
WIRE -80 64 -80 -16
WIRE -32 64 -80 64
WIRE 1552 64 1552 -32
WIRE 1552 64 1472 64
WIRE 112 80 112 -16
WIRE 112 80 32 80
WIRE 192 80 192 -208
WIRE 224 80 192 80
WIRE 608 80 416 80
WIRE 688 80 608 80
WIRE 816 80 768 80
WIRE 1008 80 816 80
WIRE 1264 80 1264 -208
WIRE 1264 80 1200 80
WIRE 1408 80 1264 80
WIRE -32 96 -176 96
WIRE 1552 304 1552 64
WIRE 1616 304 1552 304
WIRE 1904 304 1776 304
WIRE 2000 304 1984 304
WIRE 2064 304 2000 304
WIRE 192 368 192 80
WIRE 224 368 192 368
WIRE 608 368 416 368
WIRE 688 368 608 368
WIRE 832 368 768 368
WIRE 1008 368 832 368
WIRE 1264 368 1264 80
WIRE 1264 368 1200 368
WIRE 1616 368 1552 368
WIRE 2000 368 1776 368
WIRE 2064 368 2000 368
WIRE 1552 656 1552 368
WIRE 1552 656 1360 656
WIRE 1360 736 1360 656
WIRE 1408 736 1360 736
WIRE 1552 752 1552 656
WIRE 1552 752 1472 752
WIRE 1408 768 1312 768
FLAG 832 448 0
FLAG 608 448 0
FLAG 816 160 0
FLAG 608 160 0
FLAG 384 -32 0
FLAG 384 256 0
FLAG 384 544 0
FLAG 1168 544 0
FLAG 1168 256 0
FLAG 1168 -32 0
FLAG 0 112 V-
FLAG 1440 96 V-
FLAG 1040 -32 V-
FLAG 1040 256 V-
FLAG 1040 544 V-
FLAG 256 256 V-
FLAG 256 544 V-
FLAG 256 -32 V-
FLAG 320 -288 V+
FLAG 320 0 V+
FLAG 320 288 V+
FLAG 1104 -288 V+
FLAG 1104 0 V+
FLAG 1104 288 V+
FLAG 1440 32 V+
FLAG 0 48 V+
FLAG 1440 784 V-
FLAG 1440 720 V+
FLAG 1312 816 V-
FLAG 1312 736 V+
FLAG 1648 256 V+
FLAG 1648 416 V-
SYMBOL OpAmps\\OP07 0 16 R0
SYMATTR InstName U1
SYMBOL Switches\\ADG1221 320 128 R0
SYMATTR InstName U2
SYMBOL Switches\\ADG1221 320 -160 R0
SYMATTR InstName U3
SYMBOL Switches\\ADG1221 320 416 R0
SYMATTR InstName U4
SYMBOL Switches\\ADG1221 1104 -160 R0
SYMATTR InstName U5
SYMBOL Switches\\ADG1221 1104 128 R0
SYMATTR InstName U6
SYMBOL Switches\\ADG1221 1104 416 R0
SYMATTR InstName U7
SYMBOL OpAmps\\OP07 1440 0 R0
SYMATTR InstName U8
SYMBOL res 592 64 R0
SYMATTR InstName R1
SYMBOL res 800 64 R0
SYMATTR InstName R2
SYMBOL res 784 64 R90
WINDOW 0 0 56 VBottom 2
WINDOW 3 32 56 VTop 2
SYMATTR InstName R3
SYMBOL res 624 464 R180
WINDOW 0 36 76 Left 2
WINDOW 3 36 40 Left 2
SYMATTR InstName R4
SYMBOL res 672 384 R270
WINDOW 0 32 56 VTop 2
WINDOW 3 0 56 VBottom 2
SYMATTR InstName R5
SYMBOL res 816 352 R0
SYMATTR InstName R6
SYMBOL OpAmps\\OP07 1440 688 R0
SYMATTR InstName U9
SYMBOL res 1296 720 R0
SYMATTR InstName R7
SYMBOL OpAmps\\LT1994 1680 336 R0
SYMATTR InstName U10
SYMBOL res 2000 288 R90
WINDOW 0 0 56 VBottom 2
WINDOW 3 32 56 VTop 2
SYMATTR InstName R8
SYMBOL cap 1984 304 R0
SYMATTR InstName C1
